Version 4
SHEET 1 2860 680
WIRE 608 -160 480 -160
WIRE 864 -128 704 -128
WIRE 608 -112 608 -160
WIRE 656 -112 608 -112
WIRE 640 -16 560 -16
WIRE 656 -16 640 -16
WIRE 640 80 640 -16
WIRE 752 80 640 80
WIRE 704 96 704 64
WIRE 704 96 656 96
WIRE 800 96 704 96
WIRE 896 96 800 96
WIRE 608 176 608 -112
WIRE 752 176 752 80
WIRE 800 192 656 192
FLAG 560 64 0
FLAG 480 -80 0
FLAG 864 -48 0
FLAG 800 192 0
FLAG 896 96 NORoutput
SYMBOL pmos 656 -32 M180
SYMATTR InstName M9
SYMBOL pmos 656 64 M180
SYMATTR InstName M10
SYMBOL nmos 608 96 R0
SYMATTR InstName M11
SYMBOL nmos 752 96 R0
SYMATTR InstName M12
SYMBOL voltage 864 -144 R0
WINDOW 123 0 0 Left 2
WINDOW 39 0 0 Left 2
SYMATTR InstName V4
SYMATTR Value 5
SYMBOL voltage 480 -176 R0
WINDOW 123 0 0 Left 2
WINDOW 39 0 0 Left 2
WINDOW 3 -38 -36 Left 2
SYMATTR Value PULSE(0 5 0 1e-6 1e-6 0.5 1)
SYMATTR InstName V5
SYMBOL voltage 560 -32 R0
WINDOW 123 0 0 Left 2
WINDOW 39 0 0 Left 2
WINDOW 0 -80 64 Left 2
WINDOW 3 -270 -9 Left 2
SYMATTR InstName V6
SYMATTR Value PULSE(0 5 0 1e-6 1e-6 0.5 2)
TEXT 288 216 Left 2 !.tran 3
